%chk=test101
#p test hf opt
symm=saveOrientation

test

0  1
 6      0.000000    0.000000    0.000000
 8 -1   0.000000    0.000000    1.430000
 1      1.027662    0.000000   -0.363333
 1     -0.513831   -0.889981   -0.363333
 6 -1  -0.725963    1.257405   -0.513333
 1     -0.905097    0.000000    1.750000
 1     -0.725963    1.257405   -1.603333
 1     -1.753625    1.257405   -0.150000
 1     -0.212132    2.147386   -0.150000

--link1--
%chk=test101
#p test geom=allcheck guess=read chkmth chkbas freq output=mat
symm=saveOrientation

test101.mat

